[Format]      =  4.0
[Frequency]   =  0
[Precision]   =  1e-008
[MinAngle]    =  30
[DoSmartMesh] =  1
[Depth]       =  660
[LengthUnits] =  millimeters
[ProblemType] =  planar
[Coordinates] =  cartesian
[ACSolver]    =  0
[PrevType]    =  0
[PrevSoln]    =  ""
[Comment]     =  "Add comments here."
[PointProps]   = 0
[BdryProps]   = 1
  <BeginBdry>
    <BdryName> = "A=0"
    <BdryType> = 0
    <A_0> = 0
    <A_1> = 0
    <A_2> = 0
    <Phi> = 0
    <c0> = 0
    <c0i> = 0
    <c1> = 0
    <c1i> = 0
    <Mu_ssd> = 0
    <Sigma_ssd> = 0
    <innerangle> = 0
    <outerangle> = 0
  <EndBdry>
[BlockProps]  = 5
  <BeginBlock>
    <BlockName> = "Air"
    <Mu_x> = 1
    <Mu_y> = 1
    <H_c> = 0
    <H_cAngle> = 0
    <J_re> = 0
    <J_im> = 0
    <Sigma> = 0
    <d_lam> = 0
    <Phi_h> = 0
    <Phi_hx> = 0
    <Phi_hy> = 0
    <LamType> = 0
    <LamFill> = 1
    <NStrands> = 0
    <WireD> = 0
    <BHPoints> = 0
  <EndBlock>
  <BeginBlock>
    <BlockName> = "N50"
    <Mu_x> = 1.05
    <Mu_y> = 1.05
    <H_c> = 987837
    <H_cAngle> = 0
    <J_re> = 0
    <J_im> = 0
    <Sigma> = 0.66700000000000004
    <d_lam> = 0
    <Phi_h> = 0
    <Phi_hx> = 0
    <Phi_hy> = 0
    <LamType> = 0
    <LamFill> = 1
    <NStrands> = 0
    <WireD> = 0
    <BHPoints> = 8
      0	0
      0.0717	11297
      0.14349999999999999	30636
      0.2152	67096
      0.28689999999999999	118309
      0.35859999999999997	172428
      0.4304	226773
      1.4346000000000001	987837
  <EndBlock>
  <BeginBlock>
    <BlockName> = "1020 Steel"
    <Mu_x> = 760
    <Mu_y> = 760
    <H_c> = 0
    <H_cAngle> = 0
    <J_re> = 0
    <J_im> = 0
    <Sigma> = 5.7999999999999998
    <d_lam> = 1
    <Phi_h> = 20
    <Phi_hx> = 0
    <Phi_hy> = 0
    <LamType> = 0
    <LamFill> = 1
    <NStrands> = 0
    <WireD> = 0
    <BHPoints> = 38
      0	0
      0.16625200000000001	79.577472
      0.20872499999999999	100.182101
      0.26163500000000001	126.121793
      0.32714599999999999	158.77793
      0.407495	199.88957099999999
      0.50460400000000005	251.646061
      0.61936599999999997	316.80362000000002
      0.750502	398.83212800000001
      0.89319499999999996	502.09990099999999
      1.0382579999999999	632.10632499999997
      1.173276	795.77471500000001
      1.2867310000000001	1001.821011
      1.3735329999999999	1261.2179289999999
      1.4376580000000001	1587.779301
      1.4891890000000001	1998.89571
      1.5383439999999999	2516.4606050000002
      1.591321	3168.036204
      1.6497230000000001	3988.3212819999999
      1.711927	5020.9990129999996
      1.7747120000000001	6321.0632500000002
      1.8349759999999999	7957.747155
      1.8914420000000001	10018.210114
      1.945262	12612.179292999999
      1.998705	15877.793009999999
      2.0528520000000001	19988.957103000001
      2.1061839999999998	25164.606051999999
      2.1551490000000002	31680.362036999999
      2.1963750000000002	39883.212823000002
      2.2290079999999999	50209.990126999997
      2.2554500000000002	63210.632496999999
      2.2800530000000001	79577.471546000001
      2.3071359999999999	100182.101136
      2.3399749999999999	126121.79292599999
      2.3810440000000002	158777.930096
      2.4327079999999999	199889.57102999999
      2.4977480000000001	251646.06052200001
      2.5796269999999999	316803.62037000002
  <EndBlock>
  <BeginBlock>
    <BlockName> = "1020 Steel_SIM"
    <Mu_x> = 760
    <Mu_y> = 760
    <H_c> = 0
    <H_cAngle> = 0
    <J_re> = 0
    <J_im> = 0
    <Sigma> = 5.7999999999999998
    <d_lam> = 1
    <Phi_h> = 20
    <Phi_hx> = 0
    <Phi_hy> = 0
    <LamType> = 0
    <LamFill> = 1
    <NStrands> = 0
    <WireD> = 0
    <BHPoints> = 27
      0	0
      0.16600000000000001	166
      0.20899999999999999	183
      0.26200000000000001	204
      0.32700000000000001	227
      0.40699999999999997	252
      0.505	286
      0.61899999999999999	328
      0.751	390
      0.89300000000000002	475
      1.038	590
      1.173	717
      1.2869999999999999	926
      1.3740000000000001	1188
      1.4379999999999999	1450
      1.591	2661
      1.6499999999999999	3397
      1.712	4563
      1.7749999999999999	6420
      1.835	9364
      1.891	11900
      1.9450000000000001	15590
      2.0529999999999999	27280
      2.1059999999999999	36160
      2.1549999999999998	46260
      2.1960000000000002	56920
      2.2290000000000001	68400
  <EndBlock>
  <BeginBlock>
    <BlockName> = "304 Stainless Steel"
    <Mu_x> = 1
    <Mu_y> = 1
    <H_c> = 0
    <H_cAngle> = 0
    <J_re> = 0
    <J_im> = 0
    <Sigma> = 1.45
    <d_lam> = 0
    <Phi_h> = 0
    <Phi_hx> = 0
    <Phi_hy> = 0
    <LamType> = 0
    <LamFill> = 1
    <NStrands> = 0
    <WireD> = 0
    <BHPoints> = 0
  <EndBlock>
[CircuitProps]  = 0
[NumPoints] = 432
93.611211048424835	621.62622095251618	0	1
111.5112110484248	621.62622095251618	0	1
75.711211048424857	621.62622095251618	0	1
75.711211048424857	585.73299498593997	0	1
111.5112110484248	585.73299498593997	0	1
42.877853195013088	619.41115471172122	0	1
60.709738290855341	620.97124250690422	0	1
25.04596809917086	617.85106691653823	0	1
28.174268867897322	582.09442551122618	0	1
63.838039059581789	585.21460110159251	0	1
-7.469393171495315	612.78281398092224	0	1
10.15866560742321	615.89111636116036	0	1
-25.097451950413831	609.67451160068424	0	1
-18.86465867073057	574.32658438818123	0	1
16.391458887106459	580.54318914865723	0	1
-57.047355105752423	601.79164443538275	0	1
-39.757282815178101	606.42450534271813	0	1
-74.337427396326731	597.15878352804771	0	1
-65.047576926008603	562.48858957810273	0	1
-30.467432344859962	571.75431139277293	0	1
-105.47871438144681	586.52129551199334	0	1
-88.658216469379084	592.64345607752307	0	1
-122.2992122935146	580.39913494646419	0	1
-110.02300600400579	546.67053536947151	0	1
-76.382010179870306	558.91485650053005	0	1
-152.39487911083609	567.08798378655024	0	1
-136.17196972288011	574.65285067170896	0	1
-168.61778849879221	559.52311690139175	0	1
-153.44865573253179	526.99280670601775	0	1
-121.0028369566198	542.12254047633485	0	1
-197.43878895157499	543.63960849543764	0	1
-181.9369342238335	552.58960849543814	0	1
-212.94064367931639	534.68960849543805	0	1
-194.9940306960286	503.60516298460777	0	1
-163.99032124054571	521.50516298460798	0	1
-240.26763255151911	516.35462593313832	0	1
-225.6048109587461	526.6216441438221	0	1
-254.93045414429201	506.08760772245478	0	1
-234.34294550524069	476.6855982958071	0	1
-205.01730231969481	497.21963471717442	0	1
-280.55545655010968	485.4406912920735	0	1
-266.84326101827997	496.94658950546233	0	1
-294.26765208193939	473.93479307868432	0	1
-271.19593115894543	446.43898678137481	0	1
-243.77154009528601	469.45078320815281	0	1
-317.99564628026428	451.13307828120571	0	1
-305.33843489702508	463.79028966444457	0	1
-330.65285766350348	438.47586689796663	0	1
-305.27251418387681	413.09552341833933	0	1
-279.95809141739841	438.40994618481778	0	1
-352.30325929113218	413.692888551051	0	1
-340.79736107774312	427.40508408288071	0	1
-363.80915750452118	399.98069301922129	0	1
-336.31335120721212	376.90897209622699	0	1
-313.30155478043389	404.33336315988629	0	1
-383.21719393219712	373.4050645524606	0	1
-372.9501757215134	388.06788614523362	0	1
-393.48421214288078	358.74224295968759	0	1
-364.0822027162335	338.15473432063578	0	1
-343.54816629486612	367.48037750618181	0	1
-410.5021764944965	330.57622095251662	0	1
-401.55217649449679	346.07807568025811	0	1
-419.45217649449648	315.07436622477519	0	1
-388.36773098366677	297.12775324148703	0	1
-370.4677309836668	328.13146269696978	0	1
-433.95055178560892	285.53231111177791	0	1
-426.38568490045009	301.75522049973392	0	1
-441.5154186707673	269.30940172382191	0	1
-408.98510847539347	254.14026895756101	0	1
-393.85537470507671	286.58608773347311	0	1
-453.38386351105231	238.61614638238839	0	1
-447.26170294552281	255.43664429445619	0	1
-459.50602407658158	221.7956484703206	0	1
-425.7774244995893	209.5194421808113	0	1
-413.53310336853031	243.16043800494671	0	1
-468.65421243444149	190.18478710669399	0	1
-464.0213515271065	207.4748593972684	0	1
-473.28707334177682	172.89471481611969	0	1
-438.61687939183179	163.60486434580099	0	1
-429.35115757716142	198.18500892694971	0	1
-479.64538197998138	140.60682517243669	0	1
-476.53707959974332	158.23488395135519	0	1
-482.75368436021932	122.9787663935181	0	1
-447.40575714771632	116.7459731138344	0	1
-441.18915238724031	152.0020906716714	0	1
-486.27372271078008	90.259578805928442	0	1
-484.71363491559708	108.09146390177069	0	1
-487.8338105059633	72.427693710086203	0	1
-452.07716910065142	69.299392941359159	0	1
-448.9569935102852	104.96316313304359	0	1
-488.48878895157497	39.526220952516653	0	1
-488.48878895157497	57.426220952516658	0	1
-488.48878895157497	21.626220952516672	0	1
-452.59556298499911	21.626220952516089	0	1
-452.59556298499911	57.426220952516083	0	1
-486.27372271078008	-11.207136900895099	0	1
-487.8338105059633	6.6247481949471441	0	1
-484.71363491559708	-29.03902199673734	0	1
-448.9569935102852	-25.910721228011472	0	1
-452.07716910065142	9.7530489636730167	0	1
-479.64538197998161	-61.554383267403388	0	1
-482.75368436021961	-43.926324488484859	0	1
-476.53707959974332	-79.18244204632191	0	1
-441.18915238724031	-72.949648766639228	0	1
-447.40575714771632	-37.693531208802177	0	1
-468.654212434442	-111.1323452016605	0	1
-473.2870733417771	-93.842272911086198	0	1
-464.02135152710667	-128.42241749223481	0	1
-429.35115757716142	-119.1325670219172	0	1
-438.61687939183179	-84.552422440768567	0	1
-453.3838635110526	-159.56370447735509	0	1
-459.50602407658198	-142.74320656528741	0	1
-447.2617029455231	-176.38420238942291	0	1
-413.53310336853031	-164.10799609991449	0	1
-425.77742449958907	-130.46700027577899	0	1
-433.95055178560932	-206.4798692067445	0	1
-441.51541867076782	-190.2569598187884	0	1
-426.38568490045083	-222.7027785947005	0	1
-393.85537470507671	-207.5336458284406	0	1
-408.98510847539347	-175.0878270525285	0	1
-410.50217649449718	-251.52377904748329	0	1
-419.45217649449711	-236.0219243197418	0	1
-401.55217649449708	-267.02563377522472	0	1
-370.4677309836668	-249.0790207919373	0	1
-388.36773098366677	-218.0753113364544	0	1
-383.21719393219757	-294.35262264742721	0	1
-393.48421214288129	-279.68980105465431	0	1
-372.9501757215138	-309.01544424020022	0	1
-343.54816629486612	-288.42793560114927	0	1
-364.0822027162335	-259.10229241560342	0	1
-352.30325929113258	-334.64044664601778	0	1
-363.80915750452169	-320.92825111418807	0	1
-340.79736107774357	-348.3526421778476	0	1
-313.30155478043389	-325.28092125485381	0	1
-336.31335120721201	-297.85653019119439	0	1
-317.99564628026502	-372.08063637617272	0	1
-330.65285766350422	-359.42342499293329	0	1
-305.33843489702582	-384.73784775941169	0	1
-279.95809141739829	-359.35750427978508	0	1
-305.27251418387669	-334.0430815133069	0	1
-280.55545655011008	-406.3882493870405	0	1
-294.26765208193979	-394.8823511736515	0	1
-266.84326101828037	-417.89414760042962	0	1
-243.7715400952857	-390.39834130312067	0	1
-271.19593115894509	-367.38654487634261	0	1
-240.26763255151951	-437.30218402810539	0	1
-254.9304541442925	-427.03516581742178	0	1
-225.60481095874661	-447.5692022387891	0	1
-205.01730231969461	-418.16719281214222	0	1
-234.34294550524049	-397.63315639077467	0	1
-197.4387889515757	-464.58716659040522	0	1
-212.94064367931719	-455.63716659040512	0	1
-181.93693422383421	-473.53716659040521	0	1
-163.99032124054571	-442.4527210795755	0	1
-194.9940306960286	-424.55272107957552	0	1
-152.39487911083651	-488.03554188151759	0	1
-168.61778849879249	-480.47067499635921	0	1
-136.1719697228805	-495.60040876667608	0	1
-121.0028369566193	-463.07009857130248	0	1
-153.44865573253139	-447.94036480098561	0	1
-105.4787143814472	-507.46885360696092	0	1
-122.299212293515	-501.34669304143119	0	1
-88.658216469379468	-513.59101417249042	0	1
-76.382010179869795	-479.8624145954978	0	1
-110.0230060040053	-467.61809346443903	0	1
-57.047355105752892	-522.73920253035033	0	1
-74.337427396327243	-518.10634162301506	0	1
-39.757282815178591	-527.37206343768548	0	1
-30.467432344859489	-492.70186948774028	0	1
-65.047576926008134	-483.43614767307031	0	1
-7.4693931714958168	-533.73037207588993	0	1
-25.09745195041436	-530.6220696956517	0	1
10.158665607422691	-536.83867445612782	0	1
16.391458887106928	-501.49074724362498	0	1
-18.864658670730108	-495.27414248314858	0	1
42.877853195012428	-540.35871280668846	0	1
25.045968099170189	-538.79862501150569	0	1
60.709738290854673	-541.91880060187179	0	1
63.838039059582179	-506.1621591965598	0	1
28.17426886789768	-503.04198360619381	0	1
93.611211048424209	-542.57377904748364	0	1
75.711211048424175	-542.57377904748364	0	1
111.5112110484242	-542.57377904748364	0	1
111.5112110484252	-506.68055308090783	0	1
75.711211048425241	-506.68055308090783	0	1
144.344568901836	-540.35871280668846	0	1
126.5126838059937	-541.91880060187179	0	1
162.17645399767821	-538.79862501150581	0	1
159.0481532289528	-503.0419836061937	0	1
123.38438303726829	-506.1621591965598	0	1
194.69181526834419	-533.73037207589005	0	1
177.06375648942571	-536.83867445612816	0	1
212.3198740472628	-530.62206969565204	0	1
206.08708076758049	-495.27414248314858	0	1
170.83096320974349	-501.49074724362481	0	1
244.2697772026014	-522.73920253035033	0	1
226.9797049120271	-527.37206343768548	0	1
261.5598494931757	-518.10634162301551	0	1
252.26999902285851	-483.4361476730698	0	1
217.68985444170991	-492.70186948774028	0	1
292.70113647829561	-507.46885360696109	0	1
275.88063856622801	-513.59101417249065	0	1
309.52163439036349	-501.34669304143159	0	1
297.24542810085558	-467.6180934644388	0	1
263.6044322767201	-479.86241459549768	0	1
339.6173012076851	-488.03554188151799	0	1
323.39439181972909	-495.60040876667659	0	1
355.84021059564122	-480.47067499635921	0	1
340.67107782938172	-447.94036480098498	0	1
308.2252590534697	-463.0700985713022	0	1
384.66121104842392	-464.58716659040601	0	1
369.1593563206826	-473.537166590406	0	1
400.16306577616513	-455.63716659040603	0	1
382.21645279287827	-424.55272107957529	0	1
351.21274333739552	-442.45272107957533	0	1
427.49005464836779	-437.30218402810652	0	1
412.82723305559472	-447.56920223879013	0	1
442.1528762411408	-427.03516581742258	0	1
421.56536760209019	-397.63315639077467	0	1
392.23972441654428	-418.16719281214222	0	1
467.77787864695892	-406.38824938704079	0	1
454.06568311512922	-417.89414760043019	0	1
481.49007417878857	-394.88235117365218	0	1
458.41835325579518	-367.38654487634221	0	1
430.99396219213571	-390.39834130312022	0	1
505.21806837711318	-372.08063637617391	0	1
492.5608569938741	-384.73784775941323	0	1
517.87527976035244	-359.42342499293471	0	1
492.49493628072639	-334.0430815133069	0	1
467.18051351424799	-359.35750427978508	0	1
539.52568138798131	-334.64044664601892	0	1
528.01978317459225	-348.35264217784862	0	1
551.03157960137037	-320.9282511141891	0	1
523.53577330406176	-297.856530191194	0	1
500.52397687728359	-325.2809212548533	0	1
570.43961602904596	-294.3526226474288	0	1
560.17259781836231	-309.01544424020159	0	1
580.70663423972974	-279.68980105465579	0	1
551.30462481308314	-259.1022924156033	0	1
530.77058839171571	-288.42793560114922	0	1
597.72459859134608	-251.52377904748451	0	1
588.77459859134615	-267.02563377522591	0	1
606.67459859134613	-236.02192431974299	0	1
575.59015308051676	-218.07531133645401	0	1
557.69015308051655	-249.0790207919369	0	1
621.17297388245822	-206.4798692067458	0	1
613.60810699729973	-222.70277859470181	0	1
628.7378407676166	-190.25695981878971	0	1
596.20753057224363	-175.08782705252801	0	1
581.07779680192652	-207.5336458284402	0	1
640.60628560790155	-159.56370447735651	0	1
634.48412504237206	-176.3842023894241	0	1
646.72844617343105	-142.74320656528869	0	1
612.99984659643917	-130.46700027577859	0	1
600.75552546538006	-164.10799609991409	0	1
655.87663453129119	-111.13234520166159	0	1
651.24377362395614	-128.42241749223589	0	1
660.50949543862635	-93.842272911087264	0	1
625.8393014886816	-84.552422440767884	0	1
616.5735796740114	-119.1325670219165	0	1
666.86780407683102	-61.554383267405051	0	1
663.75950169659291	-79.182442046323573	0	1
669.97610645706902	-43.9263244884865	0	1
634.62817924456613	-37.693531208801971	0	1
628.4115744840899	-72.949648766639001	0	1
673.49614480762978	-11.207136900896099	0	1
671.93605701244667	-29.039021996738349	0	1
675.05623260281288	6.6247481949461333	0	1
639.29959119750106	9.7530489636738551	0	1
636.17941560713473	-25.91072122801063	0	1
675.71121104842473	39.526220952515132	0	1
675.71121104842473	21.62622095251513	0	1
675.71121104842473	57.426220952515123	0	1
639.81798508184875	57.426220952516431	0	1
639.81798508184875	21.626220952516451	0	1
673.49614480762978	90.259578805927404	0	1
675.056232602813	72.427693710085194	0	1
671.93605701244689	108.0914639017696	0	1
636.17941560713473	104.9631631330445	0	1
639.29959119750072	69.299392941359983	0	1
666.86780407683125	140.60682517243569	0	1
669.97610645706936	122.97876639351711	0	1
663.75950169659325	158.23488395135419	0	1
628.4115744840899	152.00209067167219	0	1
634.62817924456601	116.74597311383521	0	1
655.87663453129176	190.1847871066928	0	1
660.5094954386268	172.89471481611849	0	1
651.2437736239566	207.4748593972671	0	1
616.57357967401106	198.18500892695019	0	1
625.83930148868114	163.6048643458015	0	1
640.60628560790235	238.6161463823872	0	1
646.72844617343173	221.79564847031941	0	1
634.48412504237274	255.43664429445499	0	1
600.75552546537972	243.16043800494731	0	1
612.99984659643872	209.51944218081181	0	1
621.17297388245925	285.53231111177649	0	1
628.73784076761774	269.30940172382049	0	1
613.60810699730075	301.75522049973262	0	1
581.07779680192607	286.58608773347328	0	1
596.20753057224306	254.14026895756129	0	1
597.72459859134688	330.57622095251531	0	1
606.67459859134692	315.07436622477383	0	1
588.77459859134694	346.07807568025669	0	1
557.69015308051632	328.13146269697	0	1
575.5901530805163	297.12775324148708	0	1
570.43961602904756	373.40506455245941	0	1
580.70663423973122	358.74224295968628	0	1
560.1725978183639	388.06788614523231	0	1
530.77058839171571	367.48037750618198	0	1
551.30462481308314	338.15473432063612	0	1
539.52568138798244	413.69288855105032	0	1
551.03157960137128	399.98069301922072	0	1
528.01978317459304	427.40508408288008	0	1
500.52397687728302	404.33336315988669	0	1
523.53577330406097	376.90897209622779	0	1
505.21806837711512	451.13307828120469	0	1
517.87527976035415	438.47586689796549	0	1
492.56085699387557	463.79028966444389	0	1
467.18051351424782	438.40994618481812	0	1
492.49493628072611	413.09552341833961	0	1
467.77787864696	485.44069129207293	0	1
481.49007417878948	473.93479307868392	0	1
454.06568311513013	496.94658950546182	0	1
430.99396219213492	469.4507832081535	0	1
458.41835325579422	446.43898678137532	0	1
427.49005464836949	516.35462593313775	0	1
442.15287624114251	506.08760772245409	0	1
412.82723305559608	526.62164414382164	0	1
392.23972441654382	497.21963471717521	0	1
421.56536760208962	476.68559829580761	0	1
384.66121104842568	543.63960849543741	0	1
400.16306577616712	534.68960849543748	0	1
369.15935632068431	552.58960849543735	0	1
351.21274333739478	521.50516298460809	0	1
382.21645279287782	503.60516298460811	0	1
339.61730120768681	567.08798378654978	0	1
355.84021059564299	559.52311690139129	0	1
323.3943918197308	574.65285067170817	0	1
308.22525905346902	542.12254047633485	0	1
340.67107782938098	526.99280670601775	0	1
292.70113647829771	586.52129551199323	0	1
309.52163439036542	580.39913494646373	0	1
275.88063856623	592.64345607752261	0	1
263.60443227671942	558.91485650053062	0	1
297.24542810085501	546.67053536947162	0	1
244.26977720260331	601.79164443538252	0	1
261.55984949317769	597.15878352804725	0	1
226.97970491202909	606.42450534271768	0	1
217.6898544417092	571.75431139277293	0	1
252.2699990228578	562.48858957810273	0	1
194.6918152683462	612.78281398092224	0	1
212.31987404726479	609.67451160068424	0	1
177.06375648942759	615.89111636116036	0	1
170.83096320974281	580.54318914865746	0	1
206.08708076757981	574.32658438818123	0	1
144.34456890183799	619.41115471172122	0	1
162.1764539976802	617.85106691653823	0	1
126.51268380599571	620.97124250690422	0	1
123.3843830372675	585.21460110159251	0	1
159.048153228952	582.0944255112264	0	1
186.26512443855239	571.01046562350791	0	1
184.59924314126931	561.45458578419652	0	1
2.6231789555798741	561.45458578419641	0	1
0.95729765829678115	571.01046562350791	0	1
-91.890268531177242	546.13203524384301	0	1
-88.555024134658083	537.02345989884634	0	1
-246.1509186001727	446.03542780600151	0	1
-252.37155404296499	453.47812185371532	0	1
-320.34068985277429	385.50898604390568	0	1
-312.8979958050607	379.28835060111351	0	1
-403.88602789790531	221.6924561355988	0	1
-412.9946032429022	225.02770053211799	0	1
-437.87303362256671	132.1801343426439	0	1
-428.31715378325532	130.5142530453609	0	1
-428.31715378325532	-51.461811140328628	0	1
-437.87303362256682	-53.127692437611707	0	1
-412.99460324290192	-145.97525862708571	0	1
-403.88602789790508	-142.64001423056649	0	1
-312.89799580506042	-300.2359086960812	0	1
-320.34068985277418	-306.45654413887348	0	1
-252.37155404296459	-374.42567994868278	0	1
-246.15091860017239	-366.98298590096908	0	1
-88.555024134657685	-457.9710179938138	0	1
-91.890268531176915	-467.0795933388107	0	1
0.95729765829689484	-491.9580237184752	0	1
2.623178955580002	-482.40214387916382	0	1
184.5992431412694	-482.40214387916387	0	1
186.2651244385525	-491.95802371847549	0	1
279.11269062802683	-467.07959333881053	0	1
275.77744623150772	-457.97101799381369	0	1
433.37334069702229	-366.98298590096903	0	1
439.59397613981452	-374.42567994868278	0	1
507.56311194962387	-306.4565441388732	0	1
500.12041790191017	-300.23590869608103	0	1
591.10844999475478	-142.64001423056621	0	1
600.21702533975167	-145.97525862708551	0	1
625.09545571941635	-53.127692437611522	0	1
615.53957588010485	-51.461811140328422	0	1
615.53957588010496	130.5142530453611	0	1
625.09545571941646	132.1801343426441	0	1
600.21702533975167	225.02770053211799	0	1
591.10844999475489	221.6924561355988	0	1
500.12041790191029	379.28835060111351	0	1
507.5631119496241	385.50898604390579	0	1
439.59397613981417	453.47812185371549	0	1
433.37334069702189	446.03542780600179	0	1
275.77744623150733	537.02345989884645	0	1
279.11269062802648	546.13203524384335	0	1
719.06121104842487	39.526220952516297	0	1
-531.83878895157522	39.526220952516297	0	1
194.31121104842481	39.526220952516297	0	1
-7.0887889515751823	39.526220952516297	0	1
640.11121104842459	39.526220952516297	0	1
-452.88878895157495	39.526220952516297	0	1
636.61852333137449	39.526220952516297	0	1
-449.39610123452485	39.526220952516297	0	1
623.41121104842478	39.526220952516297	0	1
-436.18878895157513	39.526220952516297	0	0
93.611211048424607	579.02622095251604	0	1
-176.13878895157956	506.74692629421799	0	1
-373.60949429327741	309.27622095252059	0	1
-445.88878895157495	39.526220952515345	0	1
-373.60949429327667	-230.2237790474887	0	1
-176.13878895157848	-427.69448438918619	0	1
93.611211048425986	-499.9737790474835	0	1
363.36121104843005	-427.69448438918516	0	1
560.83191639012739	-230.22377904748672	0	1
633.11121104842459	39.526220952517882	0	1
560.83191639012591	309.27622095252218	0	1
363.36121104842755	506.74692629421907	0	1
-605	37	0	0
804	39	0	0
[NumSegments] = 312
0	1	-1	0	0	1
0	2	-1	0	0	1
2	3	-1	0	0	1
1	4	-1	0	0	1
5	6	-1	0	0	1
5	7	-1	0	0	1
7	8	-1	0	0	1
6	9	-1	0	0	1
10	11	-1	0	0	1
10	12	-1	0	0	1
12	13	-1	0	0	1
11	14	-1	0	0	1
15	16	-1	0	0	1
15	17	-1	0	0	1
17	18	-1	0	0	1
16	19	-1	0	0	1
20	21	-1	0	0	1
20	22	-1	0	0	1
22	23	-1	0	0	1
21	24	-1	0	0	1
25	26	-1	0	0	1
25	27	-1	0	0	1
27	28	-1	0	0	1
26	29	-1	0	0	1
30	31	-1	0	0	1
30	32	-1	0	0	1
32	33	-1	0	0	1
31	34	-1	0	0	1
35	36	-1	0	0	1
35	37	-1	0	0	1
37	38	-1	0	0	1
36	39	-1	0	0	1
40	41	-1	0	0	1
40	42	-1	0	0	1
42	43	-1	0	0	1
41	44	-1	0	0	1
45	46	-1	0	0	1
45	47	-1	0	0	1
47	48	-1	0	0	1
46	49	-1	0	0	1
50	51	-1	0	0	1
50	52	-1	0	0	1
52	53	-1	0	0	1
51	54	-1	0	0	1
55	56	-1	0	0	1
55	57	-1	0	0	1
57	58	-1	0	0	1
56	59	-1	0	0	1
60	61	-1	0	0	1
60	62	-1	0	0	1
62	63	-1	0	0	1
61	64	-1	0	0	1
65	66	-1	0	0	1
65	67	-1	0	0	1
67	68	-1	0	0	1
66	69	-1	0	0	1
70	71	-1	0	0	1
70	72	-1	0	0	1
72	73	-1	0	0	1
71	74	-1	0	0	1
75	76	-1	0	0	1
75	77	-1	0	0	1
77	78	-1	0	0	1
76	79	-1	0	0	1
80	81	-1	0	0	1
80	82	-1	0	0	1
82	83	-1	0	0	1
81	84	-1	0	0	1
85	86	-1	0	0	1
85	87	-1	0	0	1
87	88	-1	0	0	1
86	89	-1	0	0	1
90	91	-1	0	0	1
90	92	-1	0	0	1
92	93	-1	0	0	1
91	94	-1	0	0	1
95	96	-1	0	0	1
95	97	-1	0	0	1
97	98	-1	0	0	1
96	99	-1	0	0	1
100	101	-1	0	0	1
100	102	-1	0	0	1
102	103	-1	0	0	1
101	104	-1	0	0	1
105	106	-1	0	0	1
105	107	-1	0	0	1
107	108	-1	0	0	1
106	109	-1	0	0	1
110	111	-1	0	0	1
110	112	-1	0	0	1
112	113	-1	0	0	1
111	114	-1	0	0	1
115	116	-1	0	0	1
115	117	-1	0	0	1
117	118	-1	0	0	1
116	119	-1	0	0	1
120	121	-1	0	0	1
120	122	-1	0	0	1
122	123	-1	0	0	1
121	124	-1	0	0	1
125	126	-1	0	0	1
125	127	-1	0	0	1
127	128	-1	0	0	1
126	129	-1	0	0	1
130	131	-1	0	0	1
130	132	-1	0	0	1
132	133	-1	0	0	1
131	134	-1	0	0	1
135	136	-1	0	0	1
135	137	-1	0	0	1
137	138	-1	0	0	1
136	139	-1	0	0	1
140	141	-1	0	0	1
140	142	-1	0	0	1
142	143	-1	0	0	1
141	144	-1	0	0	1
145	146	-1	0	0	1
145	147	-1	0	0	1
147	148	-1	0	0	1
146	149	-1	0	0	1
150	151	-1	0	0	1
150	152	-1	0	0	1
152	153	-1	0	0	1
151	154	-1	0	0	1
155	156	-1	0	0	1
155	157	-1	0	0	1
157	158	-1	0	0	1
156	159	-1	0	0	1
160	161	-1	0	0	1
160	162	-1	0	0	1
162	163	-1	0	0	1
161	164	-1	0	0	1
165	166	-1	0	0	1
165	167	-1	0	0	1
167	168	-1	0	0	1
166	169	-1	0	0	1
170	171	-1	0	0	1
170	172	-1	0	0	1
172	173	-1	0	0	1
171	174	-1	0	0	1
175	176	-1	0	0	1
175	177	-1	0	0	1
177	178	-1	0	0	1
176	179	-1	0	0	1
180	181	-1	0	0	1
180	182	-1	0	0	1
182	183	-1	0	0	1
181	184	-1	0	0	1
185	186	-1	0	0	1
185	187	-1	0	0	1
187	188	-1	0	0	1
186	189	-1	0	0	1
190	191	-1	0	0	1
190	192	-1	0	0	1
192	193	-1	0	0	1
191	194	-1	0	0	1
195	196	-1	0	0	1
195	197	-1	0	0	1
197	198	-1	0	0	1
196	199	-1	0	0	1
200	201	-1	0	0	1
200	202	-1	0	0	1
202	203	-1	0	0	1
201	204	-1	0	0	1
205	206	-1	0	0	1
205	207	-1	0	0	1
207	208	-1	0	0	1
206	209	-1	0	0	1
210	211	-1	0	0	1
210	212	-1	0	0	1
212	213	-1	0	0	1
211	214	-1	0	0	1
215	216	-1	0	0	1
215	217	-1	0	0	1
217	218	-1	0	0	1
216	219	-1	0	0	1
220	221	-1	0	0	1
220	222	-1	0	0	1
222	223	-1	0	0	1
221	224	-1	0	0	1
225	226	-1	0	0	1
225	227	-1	0	0	1
227	228	-1	0	0	1
226	229	-1	0	0	1
230	231	-1	0	0	1
230	232	-1	0	0	1
232	233	-1	0	0	1
231	234	-1	0	0	1
235	236	-1	0	0	1
235	237	-1	0	0	1
237	238	-1	0	0	1
236	239	-1	0	0	1
240	241	-1	0	0	1
240	242	-1	0	0	1
242	243	-1	0	0	1
241	244	-1	0	0	1
245	246	-1	0	0	1
245	247	-1	0	0	1
247	248	-1	0	0	1
246	249	-1	0	0	1
250	251	-1	0	0	1
250	252	-1	0	0	1
252	253	-1	0	0	1
251	254	-1	0	0	1
255	256	-1	0	0	1
255	257	-1	0	0	1
257	258	-1	0	0	1
256	259	-1	0	0	1
260	261	-1	0	0	1
260	262	-1	0	0	1
262	263	-1	0	0	1
261	264	-1	0	0	1
265	266	-1	0	0	1
265	267	-1	0	0	1
267	268	-1	0	0	1
266	269	-1	0	0	1
270	271	-1	0	0	1
270	272	-1	0	0	1
272	273	-1	0	0	1
271	274	-1	0	0	1
275	276	-1	0	0	1
275	277	-1	0	0	1
277	278	-1	0	0	1
276	279	-1	0	0	1
280	281	-1	0	0	1
280	282	-1	0	0	1
282	283	-1	0	0	1
281	284	-1	0	0	1
285	286	-1	0	0	1
285	287	-1	0	0	1
287	288	-1	0	0	1
286	289	-1	0	0	1
290	291	-1	0	0	1
290	292	-1	0	0	1
292	293	-1	0	0	1
291	294	-1	0	0	1
295	296	-1	0	0	1
295	297	-1	0	0	1
297	298	-1	0	0	1
296	299	-1	0	0	1
300	301	-1	0	0	1
300	302	-1	0	0	1
302	303	-1	0	0	1
301	304	-1	0	0	1
305	306	-1	0	0	1
305	307	-1	0	0	1
307	308	-1	0	0	1
306	309	-1	0	0	1
310	311	-1	0	0	1
310	312	-1	0	0	1
312	313	-1	0	0	1
311	314	-1	0	0	1
315	316	-1	0	0	1
315	317	-1	0	0	1
317	318	-1	0	0	1
316	319	-1	0	0	1
320	321	-1	0	0	1
320	322	-1	0	0	1
322	323	-1	0	0	1
321	324	-1	0	0	1
325	326	-1	0	0	1
325	327	-1	0	0	1
327	328	-1	0	0	1
326	329	-1	0	0	1
330	331	-1	0	0	1
330	332	-1	0	0	1
332	333	-1	0	0	1
331	334	-1	0	0	1
335	336	-1	0	0	1
335	337	-1	0	0	1
337	338	-1	0	0	1
336	339	-1	0	0	1
340	341	-1	0	0	1
340	342	-1	0	0	1
342	343	-1	0	0	1
341	344	-1	0	0	1
345	346	-1	0	0	1
345	347	-1	0	0	1
347	348	-1	0	0	1
346	349	-1	0	0	1
350	351	-1	0	0	1
350	352	-1	0	0	1
352	353	-1	0	0	1
351	354	-1	0	0	1
355	356	-1	0	0	1
355	357	-1	0	0	1
357	358	-1	0	0	1
356	359	-1	0	0	1
360	361	-1	0	0	1
362	363	-1	0	0	1
364	365	-1	0	0	1
366	367	-1	0	0	1
368	369	-1	0	0	1
370	371	-1	0	0	1
372	373	-1	0	0	1
374	375	-1	0	0	1
376	377	-1	0	0	1
378	379	-1	0	0	1
380	381	-1	0	0	1
382	383	-1	0	0	1
384	385	-1	0	0	1
386	387	-1	0	0	1
388	389	-1	0	0	1
390	391	-1	0	0	1
392	393	-1	0	0	1
394	395	-1	0	0	1
396	397	-1	0	0	1
398	399	-1	0	0	1
400	401	-1	0	0	1
402	403	-1	0	0	1
404	405	-1	0	0	1
406	407	-1	0	0	1
[NumArcSegments] = 204
408	409	180	5	0	0	1	5
409	408	180	5	0	0	1	5
3	9	1.2460094378799482	5	0	0	1	5
410	411	180	5	0	0	1	5
411	410	180	5	0	0	1	5
358	4	1.2460094378800761	5	0	0	1	5
8	14	1.2460094378799909	5	0	0	1	5
13	19	1.2460094378799909	5	0	0	1	5
18	24	1.2460094378799909	5	0	0	1	5
23	29	1.2460094378798914	5	0	0	1	5
28	34	1.2460094378799909	5	0	0	1	5
33	39	1.2460094378798914	5	0	0	1	5
38	44	1.2460094378799909	5	0	0	1	5
43	49	1.2460094378799056	5	0	0	1	5
48	54	1.2460094378799909	5	0	0	1	5
53	59	1.2460094378799056	5	0	0	1	5
58	64	1.2460094378799056	5	0	0	1	5
63	69	1.2460094378799056	5	0	0	1	5
68	74	1.2460094378799056	5	0	0	1	5
73	79	1.2460094378799056	5	0	0	1	5
78	84	1.2460094378799056	5	0	0	1	5
83	89	1.2460094378799056	5	0	0	1	5
88	94	1.2460094378799056	5	0	0	1	5
93	99	1.2460094378797919	5	0	0	1	5
98	104	1.2460094378799056	5	0	0	1	5